# 1-D model for pyrite oxidation
ROCKS----1----*----2----*----3----*----4----*----5----*----6----*----7----*----8
ROCK1    2  2600.e00       .16  8.70e-13  8.70e-13  1.35e-13      2.16      920.
  2.10E-09                           0.5
    7           .457       .20        1.       .10
    7           .457       .15   8.41e-4      1.e6       1.0
WELL     2  2600.e00       .99  8.70e-10  8.70e-10  7.27e-10      2.16      920.
  2.10E-09                           0.5
    7           .457       .20        1.       .10
    7           .457       .15   8.41e-4      1.e6       1.0
 
MULTI----1----*----2----*----3----*----4----*----5----*----6----*----7----*----8
    2    3    2    6
START----1----*----2----*----3----*----4----*----5----*----6----*----7----*----8
PARAM----1-MOP: 123456789*123456789*1234 ---*----5----*----6----*----7----*----8
   49999    9999000000000001000400005000
           3.1536E08      1.e1    1.0e+6
     1.E-5     1.E00                           
               2.E06              0.0000                 21.  

SOLVR----1----*----2----*----3----*----4----*----5----*----6----*----7----*----8
5  Z1   O0    8.0e-1    1.0e-7
TIMES----1----*----2----*----3----*----4----*----5----*----6----*----7----*----8
    3          
 3.1536E07 1.5768E08 3.1536E08
ELEME----1----*----2----*----3----*----4----*----5----*----6----*----7----*----8
    1          WELL 8.52756499       0.0       1.00.16475461       0.5     -12.5
    2          ROCK129.0789966       0.0       1.0 0.5107393       0.5     -12.5
    3          ROCK155.8222932       0.0       1.00.89132245       0.5     -12.5
    4          ROCK190.2453528       0.0       1.01.30996393       0.5     -12.5
    5          ROCK1134.167293       0.0       1.01.77046954       0.5     -12.5
    6          ROCK1189.809882       0.0       1.02.27702572       0.5     -12.5
    7          ROCK1 259.88416       0.0       1.02.83423752       0.5     -12.5
    8          ROCK1347.695457       0.0       1.0 3.4471705       0.5     -12.5
    9          ROCK1457.270689       0.0       1.04.12139678       0.5     -12.5
   10          ROCK1593.512637       0.0       1.04.86304568       0.5     -12.5
   11          ROCK1762.386906       0.0       1.05.67885947       0.5     -12.5
   12          ROCK1971.148433       0.0       1.06.57625464       0.5     -12.5
   13          ROCK11228.61591       0.0       1.07.56338933       0.5     -12.5
   14          ROCK11545.50418       0.0       1.08.64923749       0.5     -12.5
   15          ROCK11934.82689       0.0       1.09.84367047       0.5     -12.5
   16          ROCK12412.38405       0.0       1.011.1575467       0.5     -12.5
   17          ROCK12997.35256       0.0       1.012.6028106       0.5     -12.5
   18          ROCK13713.00124       0.0       1.014.1926009       0.5     -12.5
   19          ROCK14587.55661       0.0       1.015.9413702       0.5     -12.5
   20          ROCK15655.25113       0.0       1.017.8650165       0.5     -12.5
   21          ROCK16957.59225       0.0       1.019.9810274       0.5     -12.5
   22          ROCK18544.89885       0.0       1.022.3086393       0.5     -12.5
   23          ROCK110478.1611       0.0       1.024.8690125       0.5     -12.5
   24          ROCK112831.2917       0.0       1.0 27.685423       0.5     -12.5
   25          ROCK115693.8514       0.0       1.030.7834745       0.5     -12.5
   26          ROCK119174.3475       0.0       1.034.1913312       0.5     -12.5
   27          ROCK123404.2265       0.0       1.037.9399735       0.5     -12.5
   28          ROCK128542.7067       0.0       1.042.0634801       0.5     -12.5
   29          ROCK134782.6271       0.0       1.046.5993373       0.5     -12.5
   30          ROCK142357.5259       0.0       1.051.5887803       0.5     -12.5
   31          ROCK151550.2081       0.0       1.057.0771675       0.5     -12.5
   32          ROCK162703.1139       0.0       1.063.1143935       0.5     -12.5
   33          ROCK1 76230.866       0.0       1.069.7553421       0.5     -12.5
   34          ROCK192635.4559       0.0       1.077.0603855       0.5     -12.5
   35          ROCK1 112524.62       0.0       1.085.0959333       0.5     -12.5
   36          ROCK1136634.081       0.0       1.093.9350359       0.5     -12.5
   37          ROCK1165854.458       0.0       1.0103.658049       0.5     -12.5
   38          ROCK1201263.836       0.0       1.0114.353363       0.5     -12.5
   39          ROCK1244167.178       0.0       1.0126.118208       0.5     -12.5
   40          ROCK1296144.015       0.0       1.0139.059538       0.5     -12.5
   41          ROCK1 359106.16       0.0       1.0153.295001       0.5     -12.5
   42          ROCK1435367.547       0.0       1.0168.954011       0.5     -12.5
   43          ROCK1527728.734       0.0       1.0186.178921       0.5     -12.5
   44          ROCK1 639579.17       0.0       1.0205.126322       0.5     -12.5
   45          ROCK1775020.938       0.0       1.0225.968464       0.5     -12.5
   46          ROCK1939018.492       0.0       1.0248.894819       0.5     -12.5
   47          ROCK11137579.85       0.0       1.0274.113811       0.5     -12.5
   48          ROCK11377975.83       0.0       1.0301.854701       0.5     -12.5
   49          ROCK1 1669005.4       0.0       1.0 332.36968       0.5     -12.5
   50          ROCK12021316.64       0.0       1.0365.936157       0.5     -12.5
   51          ROCK12447795.25       0.0       1.0402.859282       0.5     -12.5
   52          ROCK12964034.58       0.0       1.0 443.47472       0.5     -12.5
   53          ROCK13588904.41       0.0       1.0488.151701       0.5     -12.5
   54          ROCK14345239.15       0.0       1.0 537.29638       0.5     -12.5
   55          ROCK15260670.67       0.0       1.0591.355528       0.5     -12.5
   56          ROCK16368635.94       0.0       1.0 650.82059       0.5     -12.5
   57          ROCK17709596.35       0.0       1.0716.232158       0.5     -12.5
   58          ROCK19332513.15       0.0       1.0788.184883       0.5     -12.5
   59          ROCK111296632.6       0.0       1.0 867.33288       0.5     -12.5
   60          ROCK11.36736E50       0.0       1.0954.395678       0.5     -12.5

CONNE----1----*----2----*----3----*----4----*----5----*----6----*----7----*----8
    1    2                   10.164754610.1812300751.7591881       0.0
    2    3                   10.181230070.19935308108.694295       0.0
    3    4                   10.199353080.21928839171.322913       0.0
    4    5                   10.219288390.24121723240.214392       0.0
    5    6                   10.241217230.26533895315.995019       0.0
    6    7                   10.265338950.29187285399.353709       0.0
    7    8                   10.291872850.32106013491.048268       0.0
    8    9                   10.321060130.35316614591.912283       0.0
    9   10                   10.353166140.38848276  702.8627       0.0
   10   11                   10.388482760.42733103824.908158       0.0
   11   12                   10.427331030.47006414959.158162       0.0
   12   13                   10.470064140.517070551106.83317       0.0
   13   14                   10.517070550.568777611269.27567       0.0
   14   15                   10.568777610.625655371447.96243       0.0
   15   16                   10.62565537 0.68822091644.51786       0.0
   16   17                   1 0.68822090.757042991860.72883       0.0
   17   18                   10.757042990.83274729 2098.5609       0.0
   18   19                   10.832747290.916022022360.17618       0.0
   19   20                   10.916022021.007624232647.95299       0.0
   20   21                   11.007624231.108386652964.50747       0.0
   21   22                   11.108386651.219225313312.71741       0.0
   22   23                   11.219225311.341147853695.74834       0.0
   23   24                   11.341147851.475262634117.08236       0.0
   24   25                   11.475262631.622788894580.54978       0.0
   25   26                   11.622788891.785067785090.36395       0.0
   26   27                   11.785067781.963574565651.15953       0.0
   27   28                   11.963574562.159932026268.03467       0.0
   28   29                   12.159932022.375925226946.59733       0.0
   29   30                   12.375925222.613517747693.01625       0.0
   30   31                   12.613517742.874869518514.07706       0.0
   31   32                   12.874869513.162356469417.24396       0.0
   32   33                   13.162356463.4785921110410.7275       0.0
   33   34                   13.478592113.8264513211503.5595       0.0
   34   35                   13.826451324.2090964512705.6746       0.0
   35   36                   14.20909645 4.630006114028.0013       0.0
   36   37                   1 4.63000615.0930067115482.5606       0.0
   37   38                   15.093006715.6023073817082.5758       0.0
   38   39                   15.602307386.1625381218842.5926       0.0
   39   40                   16.162538126.7787919320778.6111       0.0
   40   41                   16.778791937.4566711222908.2313       0.0
   41   42                   17.456671128.2023382425250.8137       0.0
   42   43                   18.202338249.0225720627827.6542       0.0
   43   44                   19.022572069.9248292730662.1788       0.0
   44   45                   19.9248292710.917312233780.1559       0.0
   45   46                   110.917312212.009043437209.9307       0.0
   46   47                   112.009043413.209947840982.6829       0.0
   47   48                   113.209947814.530942545132.7104       0.0
   48   49                   114.530942515.984036849697.7406       0.0
   49   50                   115.984036817.582440554719.2739       0.0
   50   51                   117.582440519.340684560242.9605       0.0
   51   52                   119.3406845 21.27475366319.0157       0.0
   52   53                   1 21.27475323.402228373002.6765       0.0
   53   54                   123.402228325.742451180354.7033       0.0
   54   55                   125.742451128.316696288441.9328       0.0
   55   56                   128.316696231.148365897337.8853       0.0
   56   57                   131.148365834.2632024107123.433       0.0
   57   58                   134.263202437.6895226117887.536       0.0
   58   59                   137.689522641.4584749129728.048       0.0
   59   60                   141.458474945.6043224142752.612       0.0

GENER----1----*----2----*----3----*----4----*----5----*----6----*----7----*----8
    1AIR 1                  1      COM2        1.0  2.934E05

INCON----1----*----2----*----3----*----4----*----5----*----6----*----7----*----8
 
REACT----1MOPR(20)-2----*----3----*----4----*----5----*----6----*----7----*----8
000200060000
ENDCY----1----*----2----*----3----*----4----*----5----*----6----*----7----*----8




0.0000E+00     3.6000E+4     5.7600E+4     6.4800E+4
8.6400E+4
1.0            0.0000E+00    -1.0          0.0000E+00
0.
2.966E05       2.966E05      2.966E05      2.966E05
2.966E05